* SPICE netlist generated by Yosys 0.44 (git sha1 80ba43d26, g++ 15.1.1 -march=x86-64 -mtune=generic -O2 -fno-plt -fexceptions -fstack-clash-protection -fcf-protection -fno-omit-frame-pointer -mno-omit-leaf-frame-pointer -ffile-prefix-map=/build/yosys/src=/usr/src/debug/yosys -fPIC -O3)

.SUBCKT Bench clk rst a.0 a.1 a.2 a.3 a.4 a.5 a.6 a.7 a.8 a.9 a.10 a.11 a.12 a.13 a.14 a.15 b.0 b.1 b.2 b.3 b.4 b.5 b.6 b.7 b.8 b.9 b.10 b.11 b.12 b.13 b.14 b.15 strt
X0 timer.2 1 NOT
X1 timer.3 2 NOT
X2 timer.4 3 NOT
X3 timer.5 4 NOT
X4 timer.6 5 NOT
X5 rst 6 NOT
X6 clk 7 NOT
X7 timer.0 timer.1 8 NOR
X8 8 9 NOT
X9 timer.2 9 10 NOR
X10 1 8 11 NAND
X11 timer.3 11 12 NOR
X12 12 13 NOT
X13 timer.4 13 14 NOR
X14 3 12 15 NAND
X15 timer.5 15 16 NOR
X16 16 17 NOT
X17 5 16 18 NAND
X18 timer.7 18 strt NOR
X19 strt 19 NOT
X20 rst strt 20 NOR
X21 6 19 21 NAND
X22 timer.0 21 22.0 NOR
X23 timer.0 timer.1 23 NAND
X24 23 24 NOT
X25 8 24 25 NOR
X26 20 25 22.1 NAND
X27 1 8 26 NOR
X28 10 26 27 NOR
X29 20 27 22.2 NAND
X30 2 10 28 NOR
X31 12 28 29 NOR
X32 20 29 22.3 NAND
X33 3 12 30 NOR
X34 14 30 31 NOR
X35 20 31 22.4 NAND
X36 4 14 32 NOR
X37 16 32 33 NOR
X38 21 33 22.5 NOR
X39 timer.6 17 34 NAND
X40 18 34 35 NAND
X41 20 35 36 NAND
X42 36 22.6 NOT
X43 timer.7 18 37 NAND
X44 rst 37 22.7 NOR
X45 7 strt 38 NAND
X46 clk 22.0 timer.0 DFF
X47 clk 22.1 timer.1 DFF
X48 clk 22.2 timer.2 DFF
X49 clk 22.3 timer.3 DFF
X50 clk 22.4 timer.4 DFF
X51 clk 22.5 timer.5 DFF
X52 clk 22.6 timer.6 DFF
X53 clk 22.7 timer.7 DFF
X54 38 rst a.0 a.1 a.2 a.3 a.4 a.5 a.6 a.7 a.8 a.9 a.10 a.11 a.12 a.13 a.14 a.15 b.0 b.1 b.2 b.3 b.4 b.5 b.6 b.7 b.8 b.9 b.10 b.11 b.12 b.13 b.14 b.15 INPGEN
.ENDS Bench

.SUBCKT INPGEN clk rst a.0 a.1 a.2 a.3 a.4 a.5 a.6 a.7 a.8 a.9 a.10 a.11 a.12 a.13 a.14 a.15 b.0 b.1 b.2 b.3 b.4 b.5 b.6 b.7 b.8 b.9 b.10 b.11 b.12 b.13 b.14 b.15
X0 clk rst Vdd Vss Vdd Vss Vdd Vss Vdd Vss a.0 a.1 a.2 a.3 a.4 a.5 a.6 a.7 RNG
X1 clk rst Vss Vdd Vss Vdd Vdd Vss Vdd Vss b.0 b.1 b.2 b.3 b.4 b.5 b.6 b.7 RNG
X2 clk rst Vss Vss Vss Vss Vdd Vdd Vss Vss a.8 a.9 a.10 a.11 a.12 a.13 a.14 a.15 RNG
X3 clk rst Vdd Vdd Vss Vss Vss Vss Vdd Vdd b.8 b.9 b.10 b.11 b.12 b.13 b.14 b.15 RNG
V0 Vdd gen_rng_0_.aseed.0 DC 0
V1 Vss gen_rng_0_.aseed.1 DC 0
V2 Vdd gen_rng_0_.aseed.2 DC 0
V3 Vss gen_rng_0_.aseed.3 DC 0
V4 Vdd gen_rng_0_.aseed.4 DC 0
V5 Vss gen_rng_0_.aseed.5 DC 0
V6 Vdd gen_rng_0_.aseed.6 DC 0
V7 Vss gen_rng_0_.aseed.7 DC 0
V8 Vss gen_rng_0_.bseed.0 DC 0
V9 Vdd gen_rng_0_.bseed.1 DC 0
V10 Vss gen_rng_0_.bseed.2 DC 0
V11 Vdd gen_rng_0_.bseed.3 DC 0
V12 Vdd gen_rng_0_.bseed.4 DC 0
V13 Vss gen_rng_0_.bseed.5 DC 0
V14 Vdd gen_rng_0_.bseed.6 DC 0
V15 Vss gen_rng_0_.bseed.7 DC 0
V16 Vss gen_rng_1_.aseed.0 DC 0
V17 Vss gen_rng_1_.aseed.1 DC 0
V18 Vss gen_rng_1_.aseed.2 DC 0
V19 Vss gen_rng_1_.aseed.3 DC 0
V20 Vdd gen_rng_1_.aseed.4 DC 0
V21 Vdd gen_rng_1_.aseed.5 DC 0
V22 Vss gen_rng_1_.aseed.6 DC 0
V23 Vss gen_rng_1_.aseed.7 DC 0
V24 Vdd gen_rng_1_.bseed.0 DC 0
V25 Vdd gen_rng_1_.bseed.1 DC 0
V26 Vss gen_rng_1_.bseed.2 DC 0
V27 Vss gen_rng_1_.bseed.3 DC 0
V28 Vss gen_rng_1_.bseed.4 DC 0
V29 Vss gen_rng_1_.bseed.5 DC 0
V30 Vdd gen_rng_1_.bseed.6 DC 0
V31 Vdd gen_rng_1_.bseed.7 DC 0
.ENDS INPGEN

.SUBCKT KaratMul clk rst strt a.0 a.1 a.2 a.3 a.4 a.5 a.6 a.7 a.8 a.9 a.10 a.11 a.12 a.13 a.14 a.15 b.0 b.1 b.2 b.3 b.4 b.5 b.6 b.7 b.8 b.9 b.10 b.11 b.12 b.13 b.14 b.15 res.0 res.1 res.2 res.3 res.4 res.5 res.6 res.7 res.8 res.9 res.10 res.11 res.12 res.13 res.14 res.15 res.16 res.17 res.18 res.19 res.20 res.21 res.22 res.23 res.24 res.25 res.26 res.27 res.28 res.29 res.30 res.31 done
X0 a.15 1 NOT
X1 a.2 2 NOT
X2 a.3 3 NOT
X3 a.4 4 NOT
X4 a.5 5 NOT
X5 a.6 6 NOT
X6 a.7 7 NOT
X7 a.8 8 NOT
X8 a.9 9 NOT
X9 a.10 10 NOT
X10 a.12 11 NOT
X11 b.15 12 NOT
X12 b.2 13 NOT
X13 b.3 14 NOT
X14 b.4 15 NOT
X15 b.5 16 NOT
X16 b.6 17 NOT
X17 b.7 18 NOT
X18 b.8 19 NOT
X19 b.9 20 NOT
X20 b.11 21 NOT
X21 b.13 22 NOT
X22 b.14 23 NOT
X23 output_inv 24 NOT
X24 res_mod.2 25 NOT
X25 res_mod.3 26 NOT
X26 res_mod.4 27 NOT
X27 res_mod.5 28 NOT
X28 res_mod.6 29 NOT
X29 res_mod.7 30 NOT
X30 res_mod.8 31 NOT
X31 res_mod.9 32 NOT
X32 res_mod.10 33 NOT
X33 res_mod.11 34 NOT
X34 res_mod.12 35 NOT
X35 res_mod.13 36 NOT
X36 res_mod.14 37 NOT
X37 res_mod.15 38 NOT
X38 res_mod.16 39 NOT
X39 res_mod.17 40 NOT
X40 res_mod.18 41 NOT
X41 res_mod.19 42 NOT
X42 res_mod.20 43 NOT
X43 res_mod.21 44 NOT
X44 res_mod.22 45 NOT
X45 res_mod.23 46 NOT
X46 res_mod.24 47 NOT
X47 res_mod.25 48 NOT
X48 res_mod.26 49 NOT
X49 res_mod.28 50 NOT
X50 res_mod.29 51 NOT
X51 res_mod.31 52 NOT
X52 1 a.1 53 NAND
X53 a.0 a.1 54 NAND
X54 a.0 a.1 55 NOR
X55 1 55 56 NOR
X56 54 56 57 NAND
X57 53 57 58 NAND
X58 a.2 56 59 NOR
X59 a.2 56 60 NAND
X60 60 61 NOT
X61 59 61 62 NOR
X62 2 55 63 NAND
X63 63 64 NOT
X64 a.15 63 65 NAND
X65 a.3 65 66 NOR
X66 66 67 NOT
X67 a.3 65 68 NAND
X68 67 68 69 NAND
X69 a.3 63 70 NOR
X70 3 64 71 NAND
X71 a.15 71 72 NAND
X72 a.4 72 73 NOR
X73 73 74 NOT
X74 a.4 72 75 NAND
X75 74 75 76 NAND
X76 4 70 77 NAND
X77 77 78 NOT
X78 a.15 77 79 NAND
X79 a.5 79 80 NOR
X80 80 81 NOT
X81 a.5 79 82 NAND
X82 81 82 83 NAND
X83 a.5 77 84 NOR
X84 5 78 85 NAND
X85 a.15 85 86 NAND
X86 a.6 86 87 NOR
X87 87 88 NOT
X88 a.6 86 89 NAND
X89 88 89 90 NAND
X90 6 84 91 NAND
X91 91 92 NOT
X92 a.15 91 93 NAND
X93 a.7 93 94 NOR
X94 94 95 NOT
X95 a.7 93 96 NAND
X96 95 96 97 NAND
X97 7 92 98 NAND
X98 98 99 NOT
X99 a.15 98 100 NAND
X100 a.8 100 101 NOR
X101 101 102 NOT
X102 a.8 100 103 NAND
X103 102 103 104 NAND
X104 8 99 105 NAND
X105 105 106 NOT
X106 a.15 105 107 NAND
X107 a.9 107 108 NOR
X108 108 109 NOT
X109 a.9 107 110 NAND
X110 109 110 111 NAND
X111 9 106 112 NAND
X112 112 113 NOT
X113 a.15 112 114 NAND
X114 a.10 114 115 NOR
X115 115 116 NOT
X116 a.10 114 117 NAND
X117 116 117 118 NAND
X118 10 113 119 NAND
X119 a.15 119 120 NAND
X120 a.11 120 121 NOR
X121 121 122 NOT
X122 a.11 120 123 NAND
X123 122 123 124 NAND
X124 a.11 119 125 NOR
X125 125 126 NOT
X126 a.15 126 127 NAND
X127 a.12 127 128 NOR
X128 128 129 NOT
X129 a.12 127 130 NAND
X130 129 130 131 NAND
X131 11 125 132 NAND
X132 a.15 132 133 NAND
X133 a.13 133 134 NOR
X134 134 135 NOT
X135 a.13 133 136 NAND
X136 135 136 137 NAND
X137 a.13 132 138 NOR
X138 138 139 NOT
X139 a.15 139 140 NAND
X140 a.14 140 141 NOR
X141 141 142 NOT
X142 a.14 140 143 NAND
X143 142 143 144 NAND
X144 a.15 138 145 NAND
X145 a.14 145 146 NOR
X146 12 b.1 147 NAND
X147 b.0 b.1 148 NAND
X148 b.0 b.1 149 NOR
X149 12 149 150 NOR
X150 148 150 151 NAND
X151 147 151 152 NAND
X152 b.2 150 153 NOR
X153 b.2 150 154 NAND
X154 154 155 NOT
X155 153 155 156 NOR
X156 13 149 157 NAND
X157 157 158 NOT
X158 b.15 157 159 NAND
X159 b.3 159 160 NOR
X160 160 161 NOT
X161 b.3 159 162 NAND
X162 161 162 163 NAND
X163 b.3 157 164 NOR
X164 14 158 165 NAND
X165 b.15 165 166 NAND
X166 b.4 166 167 NOR
X167 167 168 NOT
X168 b.4 166 169 NAND
X169 168 169 170 NAND
X170 15 164 171 NAND
X171 171 172 NOT
X172 b.15 171 173 NAND
X173 b.5 173 174 NOR
X174 174 175 NOT
X175 b.5 173 176 NAND
X176 175 176 177 NAND
X177 b.5 171 178 NOR
X178 16 172 179 NAND
X179 b.15 179 180 NAND
X180 b.6 180 181 NOR
X181 181 182 NOT
X182 b.6 180 183 NAND
X183 182 183 184 NAND
X184 17 178 185 NAND
X185 185 186 NOT
X186 b.15 185 187 NAND
X187 b.7 187 188 NOR
X188 188 189 NOT
X189 b.7 187 190 NAND
X190 189 190 191 NAND
X191 18 186 192 NAND
X192 192 193 NOT
X193 b.15 192 194 NAND
X194 b.8 194 195 NOR
X195 195 196 NOT
X196 b.8 194 197 NAND
X197 196 197 198 NAND
X198 19 193 199 NAND
X199 199 200 NOT
X200 b.15 199 201 NAND
X201 b.9 201 202 NOR
X202 202 203 NOT
X203 b.9 201 204 NAND
X204 203 204 205 NAND
X205 20 200 206 NAND
X206 b.15 206 207 NAND
X207 b.10 207 208 NOR
X208 208 209 NOT
X209 b.10 207 210 NAND
X210 209 210 211 NAND
X211 b.10 206 212 NOR
X212 212 213 NOT
X213 b.15 213 214 NAND
X214 b.11 214 215 NOR
X215 215 216 NOT
X216 b.11 214 217 NAND
X217 216 217 218 NAND
X218 21 212 219 NAND
X219 b.15 219 220 NAND
X220 b.12 220 221 NOR
X221 221 222 NOT
X222 b.12 220 223 NAND
X223 222 223 224 NAND
X224 b.12 219 225 NOR
X225 225 226 NOT
X226 b.15 226 227 NAND
X227 b.13 227 228 NOR
X228 228 229 NOT
X229 b.13 227 230 NAND
X230 229 230 231 NAND
X231 22 225 232 NAND
X232 b.15 232 233 NAND
X233 b.14 233 234 NOR
X234 234 235 NOT
X235 b.14 233 236 NAND
X236 235 236 237 NAND
X237 b.15 23 238 NAND
X238 232 238 239 NOR
X239 24 res_mod.1 240 NAND
X240 res_mod.0 res_mod.1 241 NAND
X241 res_mod.0 res_mod.1 242 NOR
X242 24 242 243 NOR
X243 241 243 244 NAND
X244 240 244 res.1 NAND
X245 res_mod.2 243 245 NOR
X246 res_mod.2 243 246 NAND
X247 246 247 NOT
X248 245 247 res.2 NOR
X249 25 242 248 NAND
X250 248 249 NOT
X251 output_inv 248 250 NAND
X252 res_mod.3 250 251 NOR
X253 251 252 NOT
X254 res_mod.3 250 253 NAND
X255 252 253 res.3 NAND
X256 res_mod.3 248 254 NOR
X257 26 249 255 NAND
X258 output_inv 255 256 NAND
X259 res_mod.4 256 257 NOR
X260 257 258 NOT
X261 res_mod.4 256 259 NAND
X262 258 259 res.4 NAND
X263 27 254 260 NAND
X264 260 261 NOT
X265 output_inv 260 262 NAND
X266 res_mod.5 262 263 NOR
X267 263 264 NOT
X268 res_mod.5 262 265 NAND
X269 264 265 res.5 NAND
X270 res_mod.5 260 266 NOR
X271 28 261 267 NAND
X272 output_inv 267 268 NAND
X273 res_mod.6 268 269 NOR
X274 269 270 NOT
X275 res_mod.6 268 271 NAND
X276 270 271 res.6 NAND
X277 29 266 272 NAND
X278 272 273 NOT
X279 output_inv 272 274 NAND
X280 res_mod.7 274 275 NOR
X281 275 276 NOT
X282 res_mod.7 274 277 NAND
X283 276 277 res.7 NAND
X284 res_mod.7 272 278 NOR
X285 30 273 279 NAND
X286 output_inv 279 280 NAND
X287 res_mod.8 280 281 NOR
X288 281 282 NOT
X289 res_mod.8 280 283 NAND
X290 282 283 res.8 NAND
X291 31 278 284 NAND
X292 284 285 NOT
X293 output_inv 284 286 NAND
X294 res_mod.9 286 287 NOR
X295 287 288 NOT
X296 res_mod.9 286 289 NAND
X297 288 289 res.9 NAND
X298 res_mod.9 284 290 NOR
X299 32 285 291 NAND
X300 output_inv 291 292 NAND
X301 res_mod.10 292 293 NOR
X302 293 294 NOT
X303 res_mod.10 292 295 NAND
X304 294 295 res.10 NAND
X305 33 290 296 NAND
X306 296 297 NOT
X307 output_inv 296 298 NAND
X308 res_mod.11 298 299 NOR
X309 299 300 NOT
X310 res_mod.11 298 301 NAND
X311 300 301 res.11 NAND
X312 res_mod.11 296 302 NOR
X313 34 297 303 NAND
X314 output_inv 303 304 NAND
X315 res_mod.12 304 305 NOR
X316 305 306 NOT
X317 res_mod.12 304 307 NAND
X318 306 307 res.12 NAND
X319 35 302 308 NAND
X320 308 309 NOT
X321 output_inv 308 310 NAND
X322 res_mod.13 310 311 NOR
X323 311 312 NOT
X324 res_mod.13 310 313 NAND
X325 312 313 res.13 NAND
X326 res_mod.13 308 314 NOR
X327 36 309 315 NAND
X328 output_inv 315 316 NAND
X329 res_mod.14 316 317 NOR
X330 317 318 NOT
X331 res_mod.14 316 319 NAND
X332 318 319 res.14 NAND
X333 37 314 320 NAND
X334 320 321 NOT
X335 output_inv 320 322 NAND
X336 res_mod.15 322 323 NOR
X337 323 324 NOT
X338 res_mod.15 322 325 NAND
X339 324 325 res.15 NAND
X340 res_mod.15 320 326 NOR
X341 38 321 327 NAND
X342 output_inv 327 328 NAND
X343 res_mod.16 328 329 NOR
X344 329 330 NOT
X345 res_mod.16 328 331 NAND
X346 330 331 res.16 NAND
X347 39 326 332 NAND
X348 332 333 NOT
X349 output_inv 332 334 NAND
X350 res_mod.17 334 335 NOR
X351 335 336 NOT
X352 res_mod.17 334 337 NAND
X353 336 337 res.17 NAND
X354 res_mod.17 332 338 NOR
X355 40 333 339 NAND
X356 output_inv 339 340 NAND
X357 res_mod.18 340 341 NOR
X358 341 342 NOT
X359 res_mod.18 340 343 NAND
X360 342 343 res.18 NAND
X361 41 338 344 NAND
X362 344 345 NOT
X363 output_inv 344 346 NAND
X364 res_mod.19 346 347 NOR
X365 347 348 NOT
X366 res_mod.19 346 349 NAND
X367 348 349 res.19 NAND
X368 res_mod.19 344 350 NOR
X369 42 345 351 NAND
X370 output_inv 351 352 NAND
X371 res_mod.20 352 353 NOR
X372 353 354 NOT
X373 res_mod.20 352 355 NAND
X374 354 355 res.20 NAND
X375 43 350 356 NAND
X376 356 357 NOT
X377 output_inv 356 358 NAND
X378 res_mod.21 358 359 NOR
X379 359 360 NOT
X380 res_mod.21 358 361 NAND
X381 360 361 res.21 NAND
X382 res_mod.21 356 362 NOR
X383 44 357 363 NAND
X384 output_inv 363 364 NAND
X385 res_mod.22 364 365 NOR
X386 365 366 NOT
X387 res_mod.22 364 367 NAND
X388 366 367 res.22 NAND
X389 45 362 368 NAND
X390 368 369 NOT
X391 output_inv 368 370 NAND
X392 res_mod.23 370 371 NOR
X393 371 372 NOT
X394 res_mod.23 370 373 NAND
X395 372 373 res.23 NAND
X396 res_mod.23 368 374 NOR
X397 46 369 375 NAND
X398 output_inv 375 376 NAND
X399 res_mod.24 376 377 NOR
X400 377 378 NOT
X401 res_mod.24 376 379 NAND
X402 378 379 res.24 NAND
X403 47 374 380 NAND
X404 380 381 NOT
X405 output_inv 380 382 NAND
X406 res_mod.25 382 383 NOR
X407 383 384 NOT
X408 res_mod.25 382 385 NAND
X409 384 385 res.25 NAND
X410 res_mod.25 380 386 NOR
X411 48 381 387 NAND
X412 output_inv 387 388 NAND
X413 res_mod.26 388 389 NOR
X414 389 390 NOT
X415 res_mod.26 388 391 NAND
X416 390 391 res.26 NAND
X417 49 386 392 NAND
X418 output_inv 392 393 NAND
X419 393 394 NOT
X420 res_mod.27 393 395 NAND
X421 res_mod.27 393 396 NOR
X422 396 397 NOT
X423 395 397 res.27 NAND
X424 output_inv res_mod.27 398 NAND
X425 398 399 NOT
X426 394 399 400 NOR
X427 393 398 401 NAND
X428 50 401 402 NAND
X429 res_mod.28 400 403 NAND
X430 402 403 res.28 NAND
X431 output_inv res_mod.28 404 NAND
X432 404 405 NOT
X433 401 405 406 NOR
X434 400 404 407 NAND
X435 51 407 408 NAND
X436 res_mod.29 406 409 NAND
X437 408 409 res.29 NAND
X438 output_inv res_mod.29 410 NAND
X439 406 410 411 NAND
X440 411 412 NOT
X441 res_mod.30 411 413 NAND
X442 413 414 NOT
X443 res_mod.30 411 415 NOR
X444 414 415 res.30 NOR
X445 output_inv res_mod.30 416 NAND
X446 416 417 NOT
X447 411 417 418 NOR
X448 412 416 419 NAND
X449 res_mod.31 419 420 NOR
X450 52 418 421 NOR
X451 420 421 res.31 NOR
X452 1 b.15 422 NOR
X453 a.15 12 423 NOR
X454 422 423 424 NOR
X455 output_inv strt 425 NOR
X456 rst 425 426 NOR
X457 strt 424 427 NAND
X458 426 427 428 NAND
X459 428 429 NOT
X460 a.0 430 BUF
X461 b.0 431 BUF
X462 res_mod.0 res.0 BUF
X463 clk 429 output_inv DFF
X464 clk rst strt 430 58 62 69 76 83 90 97 104 111 118 124 131 137 144 146 431 152 156 163 170 177 184 191 198 205 211 218 224 231 237 239 res_mod.0 res_mod.1 res_mod.2 res_mod.3 res_mod.4 res_mod.5 res_mod.6 res_mod.7 res_mod.8 res_mod.9 res_mod.10 res_mod.11 res_mod.12 res_mod.13 res_mod.14 res_mod.15 res_mod.16 res_mod.17 res_mod.18 res_mod.19 res_mod.20 res_mod.21 res_mod.22 res_mod.23 res_mod.24 res_mod.25 res_mod.26 res_mod.27 res_mod.28 res_mod.29 res_mod.30 res_mod.31 done UKarat
.ENDS KaratMul

.SUBCKT RNG clk rst seed.0 seed.1 seed.2 seed.3 seed.4 seed.5 seed.6 seed.7 rnd.0 rnd.1 rnd.2 rnd.3 rnd.4 rnd.5 rnd.6 rnd.7
X0 rst 1 NOT
X1 seed.0 1 2 NOR
X2 rnd.3 rnd.5 3 NOR
X3 3 4 NOT
X4 rnd.3 rnd.5 5 NAND
X5 5 6 NOT
X6 3 6 7 NOR
X7 4 5 8 NAND
X8 rnd.1 rnd.2 9 NAND
X9 9 10 NOT
X10 rnd.1 rnd.2 11 NOR
X11 11 12 NOT
X12 9 12 13 NAND
X13 10 11 14 NOR
X14 7 14 15 NOR
X15 8 13 16 NOR
X16 15 16 17 NOR
X17 rst 17 18 NOR
X18 2 18 19.0 NOR
X19 1 seed.1 20 NOR
X20 rnd.3 rnd.4 21 NOR
X21 21 22 NOT
X22 rnd.3 rnd.4 23 NAND
X23 23 24 NOT
X24 22 23 25 NAND
X25 21 24 26 NOR
X26 rnd.2 rnd.6 27 NOR
X27 27 28 NOT
X28 rnd.2 rnd.6 29 NAND
X29 29 30 NOT
X30 27 30 31 NOR
X31 28 29 32 NAND
X32 26 31 33 NOR
X33 25 32 34 NOR
X34 33 34 35 NOR
X35 rst 35 36 NOR
X36 20 36 19.1 NOR
X37 1 seed.2 37 NOR
X38 rnd.5 rnd.7 38 NOR
X39 38 39 NOT
X40 rnd.5 rnd.7 40 NAND
X41 40 41 NOT
X42 38 41 42 NOR
X43 39 40 43 NAND
X44 26 42 44 NOR
X45 25 43 45 NOR
X46 44 45 46 NOR
X47 rst 46 47 NOR
X48 37 47 19.2 NOR
X49 rst seed.3 48 NAND
X50 1 rnd.0 49 NAND
X51 48 49 19.3 NAND
X52 rst seed.4 50 NAND
X53 1 rnd.1 51 NAND
X54 50 51 19.4 NAND
X55 rst seed.5 52 NAND
X56 1 rnd.2 53 NAND
X57 52 53 19.5 NAND
X58 rst seed.6 54 NAND
X59 1 rnd.3 55 NAND
X60 54 55 19.6 NAND
X61 rst seed.7 56 NAND
X62 1 rnd.4 57 NAND
X63 56 57 19.7 NAND
X64 clk 19.0 rnd.0 DFF
X65 clk 19.1 rnd.1 DFF
X66 clk 19.2 rnd.2 DFF
X67 clk 19.3 rnd.3 DFF
X68 clk 19.4 rnd.4 DFF
X69 clk 19.5 rnd.5 DFF
X70 clk 19.6 rnd.6 DFF
X71 clk 19.7 rnd.7 DFF
.ENDS RNG

.SUBCKT ShaddMul clk rst strt a.0 a.1 a.2 a.3 a.4 a.5 a.6 a.7 a.8 a.9 a.10 a.11 a.12 a.13 a.14 a.15 b.0 b.1 b.2 b.3 b.4 b.5 b.6 b.7 b.8 b.9 b.10 b.11 b.12 b.13 b.14 b.15 res.0 res.1 res.2 res.3 res.4 res.5 res.6 res.7 res.8 res.9 res.10 res.11 res.12 res.13 res.14 res.15 res.16 res.17 res.18 res.19 res.20 res.21 res.22 res.23 res.24 res.25 res.26 res.27 res.28 res.29 res.30 res.31 done
X0 a.15 1 NOT
X1 a.2 2 NOT
X2 a.3 3 NOT
X3 a.4 4 NOT
X4 a.5 5 NOT
X5 a.6 6 NOT
X6 a.7 7 NOT
X7 a.8 8 NOT
X8 a.9 9 NOT
X9 a.10 10 NOT
X10 a.12 11 NOT
X11 b.15 12 NOT
X12 b.2 13 NOT
X13 b.3 14 NOT
X14 b.4 15 NOT
X15 b.5 16 NOT
X16 b.6 17 NOT
X17 b.7 18 NOT
X18 b.8 19 NOT
X19 b.9 20 NOT
X20 b.11 21 NOT
X21 b.13 22 NOT
X22 b.14 23 NOT
X23 output_inv 24 NOT
X24 res_mod.2 25 NOT
X25 res_mod.3 26 NOT
X26 res_mod.4 27 NOT
X27 res_mod.5 28 NOT
X28 res_mod.6 29 NOT
X29 res_mod.7 30 NOT
X30 res_mod.8 31 NOT
X31 res_mod.9 32 NOT
X32 res_mod.10 33 NOT
X33 res_mod.11 34 NOT
X34 res_mod.12 35 NOT
X35 res_mod.13 36 NOT
X36 res_mod.14 37 NOT
X37 res_mod.15 38 NOT
X38 res_mod.16 39 NOT
X39 res_mod.17 40 NOT
X40 res_mod.18 41 NOT
X41 res_mod.19 42 NOT
X42 res_mod.20 43 NOT
X43 res_mod.21 44 NOT
X44 res_mod.22 45 NOT
X45 res_mod.23 46 NOT
X46 res_mod.24 47 NOT
X47 res_mod.25 48 NOT
X48 res_mod.26 49 NOT
X49 res_mod.28 50 NOT
X50 res_mod.29 51 NOT
X51 res_mod.31 52 NOT
X52 1 a.1 53 NAND
X53 a.0 a.1 54 NAND
X54 a.0 a.1 55 NOR
X55 1 55 56 NOR
X56 54 56 57 NAND
X57 53 57 58 NAND
X58 a.2 56 59 NOR
X59 a.2 56 60 NAND
X60 60 61 NOT
X61 59 61 62 NOR
X62 2 55 63 NAND
X63 63 64 NOT
X64 a.15 63 65 NAND
X65 a.3 65 66 NOR
X66 66 67 NOT
X67 a.3 65 68 NAND
X68 67 68 69 NAND
X69 a.3 63 70 NOR
X70 3 64 71 NAND
X71 a.15 71 72 NAND
X72 a.4 72 73 NOR
X73 73 74 NOT
X74 a.4 72 75 NAND
X75 74 75 76 NAND
X76 4 70 77 NAND
X77 77 78 NOT
X78 a.15 77 79 NAND
X79 a.5 79 80 NOR
X80 80 81 NOT
X81 a.5 79 82 NAND
X82 81 82 83 NAND
X83 a.5 77 84 NOR
X84 5 78 85 NAND
X85 a.15 85 86 NAND
X86 a.6 86 87 NOR
X87 87 88 NOT
X88 a.6 86 89 NAND
X89 88 89 90 NAND
X90 6 84 91 NAND
X91 91 92 NOT
X92 a.15 91 93 NAND
X93 a.7 93 94 NOR
X94 94 95 NOT
X95 a.7 93 96 NAND
X96 95 96 97 NAND
X97 7 92 98 NAND
X98 98 99 NOT
X99 a.15 98 100 NAND
X100 a.8 100 101 NOR
X101 101 102 NOT
X102 a.8 100 103 NAND
X103 102 103 104 NAND
X104 8 99 105 NAND
X105 105 106 NOT
X106 a.15 105 107 NAND
X107 a.9 107 108 NOR
X108 108 109 NOT
X109 a.9 107 110 NAND
X110 109 110 111 NAND
X111 9 106 112 NAND
X112 112 113 NOT
X113 a.15 112 114 NAND
X114 a.10 114 115 NOR
X115 115 116 NOT
X116 a.10 114 117 NAND
X117 116 117 118 NAND
X118 10 113 119 NAND
X119 a.15 119 120 NAND
X120 a.11 120 121 NOR
X121 121 122 NOT
X122 a.11 120 123 NAND
X123 122 123 124 NAND
X124 a.11 119 125 NOR
X125 125 126 NOT
X126 a.15 126 127 NAND
X127 a.12 127 128 NOR
X128 128 129 NOT
X129 a.12 127 130 NAND
X130 129 130 131 NAND
X131 11 125 132 NAND
X132 a.15 132 133 NAND
X133 a.13 133 134 NOR
X134 134 135 NOT
X135 a.13 133 136 NAND
X136 135 136 137 NAND
X137 a.13 132 138 NOR
X138 138 139 NOT
X139 a.15 139 140 NAND
X140 a.14 140 141 NOR
X141 141 142 NOT
X142 a.14 140 143 NAND
X143 142 143 144 NAND
X144 a.15 138 145 NAND
X145 a.14 145 146 NOR
X146 12 b.1 147 NAND
X147 b.0 b.1 148 NAND
X148 b.0 b.1 149 NOR
X149 12 149 150 NOR
X150 148 150 151 NAND
X151 147 151 152 NAND
X152 b.2 150 153 NOR
X153 b.2 150 154 NAND
X154 154 155 NOT
X155 153 155 156 NOR
X156 13 149 157 NAND
X157 157 158 NOT
X158 b.15 157 159 NAND
X159 b.3 159 160 NOR
X160 160 161 NOT
X161 b.3 159 162 NAND
X162 161 162 163 NAND
X163 b.3 157 164 NOR
X164 14 158 165 NAND
X165 b.15 165 166 NAND
X166 b.4 166 167 NOR
X167 167 168 NOT
X168 b.4 166 169 NAND
X169 168 169 170 NAND
X170 15 164 171 NAND
X171 171 172 NOT
X172 b.15 171 173 NAND
X173 b.5 173 174 NOR
X174 174 175 NOT
X175 b.5 173 176 NAND
X176 175 176 177 NAND
X177 b.5 171 178 NOR
X178 16 172 179 NAND
X179 b.15 179 180 NAND
X180 b.6 180 181 NOR
X181 181 182 NOT
X182 b.6 180 183 NAND
X183 182 183 184 NAND
X184 17 178 185 NAND
X185 185 186 NOT
X186 b.15 185 187 NAND
X187 b.7 187 188 NOR
X188 188 189 NOT
X189 b.7 187 190 NAND
X190 189 190 191 NAND
X191 18 186 192 NAND
X192 192 193 NOT
X193 b.15 192 194 NAND
X194 b.8 194 195 NOR
X195 195 196 NOT
X196 b.8 194 197 NAND
X197 196 197 198 NAND
X198 19 193 199 NAND
X199 199 200 NOT
X200 b.15 199 201 NAND
X201 b.9 201 202 NOR
X202 202 203 NOT
X203 b.9 201 204 NAND
X204 203 204 205 NAND
X205 20 200 206 NAND
X206 b.15 206 207 NAND
X207 b.10 207 208 NOR
X208 208 209 NOT
X209 b.10 207 210 NAND
X210 209 210 211 NAND
X211 b.10 206 212 NOR
X212 212 213 NOT
X213 b.15 213 214 NAND
X214 b.11 214 215 NOR
X215 215 216 NOT
X216 b.11 214 217 NAND
X217 216 217 218 NAND
X218 21 212 219 NAND
X219 b.15 219 220 NAND
X220 b.12 220 221 NOR
X221 221 222 NOT
X222 b.12 220 223 NAND
X223 222 223 224 NAND
X224 b.12 219 225 NOR
X225 225 226 NOT
X226 b.15 226 227 NAND
X227 b.13 227 228 NOR
X228 228 229 NOT
X229 b.13 227 230 NAND
X230 229 230 231 NAND
X231 22 225 232 NAND
X232 b.15 232 233 NAND
X233 b.14 233 234 NOR
X234 234 235 NOT
X235 b.14 233 236 NAND
X236 235 236 237 NAND
X237 b.15 23 238 NAND
X238 232 238 239 NOR
X239 24 res_mod.1 240 NAND
X240 res_mod.0 res_mod.1 241 NAND
X241 res_mod.0 res_mod.1 242 NOR
X242 24 242 243 NOR
X243 241 243 244 NAND
X244 240 244 res.1 NAND
X245 res_mod.2 243 245 NOR
X246 res_mod.2 243 246 NAND
X247 246 247 NOT
X248 245 247 res.2 NOR
X249 25 242 248 NAND
X250 248 249 NOT
X251 output_inv 248 250 NAND
X252 res_mod.3 250 251 NOR
X253 251 252 NOT
X254 res_mod.3 250 253 NAND
X255 252 253 res.3 NAND
X256 res_mod.3 248 254 NOR
X257 26 249 255 NAND
X258 output_inv 255 256 NAND
X259 res_mod.4 256 257 NOR
X260 257 258 NOT
X261 res_mod.4 256 259 NAND
X262 258 259 res.4 NAND
X263 27 254 260 NAND
X264 260 261 NOT
X265 output_inv 260 262 NAND
X266 res_mod.5 262 263 NOR
X267 263 264 NOT
X268 res_mod.5 262 265 NAND
X269 264 265 res.5 NAND
X270 res_mod.5 260 266 NOR
X271 28 261 267 NAND
X272 output_inv 267 268 NAND
X273 res_mod.6 268 269 NOR
X274 269 270 NOT
X275 res_mod.6 268 271 NAND
X276 270 271 res.6 NAND
X277 29 266 272 NAND
X278 272 273 NOT
X279 output_inv 272 274 NAND
X280 res_mod.7 274 275 NOR
X281 275 276 NOT
X282 res_mod.7 274 277 NAND
X283 276 277 res.7 NAND
X284 res_mod.7 272 278 NOR
X285 30 273 279 NAND
X286 output_inv 279 280 NAND
X287 res_mod.8 280 281 NOR
X288 281 282 NOT
X289 res_mod.8 280 283 NAND
X290 282 283 res.8 NAND
X291 31 278 284 NAND
X292 284 285 NOT
X293 output_inv 284 286 NAND
X294 res_mod.9 286 287 NOR
X295 287 288 NOT
X296 res_mod.9 286 289 NAND
X297 288 289 res.9 NAND
X298 res_mod.9 284 290 NOR
X299 32 285 291 NAND
X300 output_inv 291 292 NAND
X301 res_mod.10 292 293 NOR
X302 293 294 NOT
X303 res_mod.10 292 295 NAND
X304 294 295 res.10 NAND
X305 33 290 296 NAND
X306 296 297 NOT
X307 output_inv 296 298 NAND
X308 res_mod.11 298 299 NOR
X309 299 300 NOT
X310 res_mod.11 298 301 NAND
X311 300 301 res.11 NAND
X312 res_mod.11 296 302 NOR
X313 34 297 303 NAND
X314 output_inv 303 304 NAND
X315 res_mod.12 304 305 NOR
X316 305 306 NOT
X317 res_mod.12 304 307 NAND
X318 306 307 res.12 NAND
X319 35 302 308 NAND
X320 308 309 NOT
X321 output_inv 308 310 NAND
X322 res_mod.13 310 311 NOR
X323 311 312 NOT
X324 res_mod.13 310 313 NAND
X325 312 313 res.13 NAND
X326 res_mod.13 308 314 NOR
X327 36 309 315 NAND
X328 output_inv 315 316 NAND
X329 res_mod.14 316 317 NOR
X330 317 318 NOT
X331 res_mod.14 316 319 NAND
X332 318 319 res.14 NAND
X333 37 314 320 NAND
X334 320 321 NOT
X335 output_inv 320 322 NAND
X336 res_mod.15 322 323 NOR
X337 323 324 NOT
X338 res_mod.15 322 325 NAND
X339 324 325 res.15 NAND
X340 res_mod.15 320 326 NOR
X341 38 321 327 NAND
X342 output_inv 327 328 NAND
X343 res_mod.16 328 329 NOR
X344 329 330 NOT
X345 res_mod.16 328 331 NAND
X346 330 331 res.16 NAND
X347 39 326 332 NAND
X348 332 333 NOT
X349 output_inv 332 334 NAND
X350 res_mod.17 334 335 NOR
X351 335 336 NOT
X352 res_mod.17 334 337 NAND
X353 336 337 res.17 NAND
X354 res_mod.17 332 338 NOR
X355 40 333 339 NAND
X356 output_inv 339 340 NAND
X357 res_mod.18 340 341 NOR
X358 341 342 NOT
X359 res_mod.18 340 343 NAND
X360 342 343 res.18 NAND
X361 41 338 344 NAND
X362 344 345 NOT
X363 output_inv 344 346 NAND
X364 res_mod.19 346 347 NOR
X365 347 348 NOT
X366 res_mod.19 346 349 NAND
X367 348 349 res.19 NAND
X368 res_mod.19 344 350 NOR
X369 42 345 351 NAND
X370 output_inv 351 352 NAND
X371 res_mod.20 352 353 NOR
X372 353 354 NOT
X373 res_mod.20 352 355 NAND
X374 354 355 res.20 NAND
X375 43 350 356 NAND
X376 356 357 NOT
X377 output_inv 356 358 NAND
X378 res_mod.21 358 359 NOR
X379 359 360 NOT
X380 res_mod.21 358 361 NAND
X381 360 361 res.21 NAND
X382 res_mod.21 356 362 NOR
X383 44 357 363 NAND
X384 output_inv 363 364 NAND
X385 res_mod.22 364 365 NOR
X386 365 366 NOT
X387 res_mod.22 364 367 NAND
X388 366 367 res.22 NAND
X389 45 362 368 NAND
X390 368 369 NOT
X391 output_inv 368 370 NAND
X392 res_mod.23 370 371 NOR
X393 371 372 NOT
X394 res_mod.23 370 373 NAND
X395 372 373 res.23 NAND
X396 res_mod.23 368 374 NOR
X397 46 369 375 NAND
X398 output_inv 375 376 NAND
X399 res_mod.24 376 377 NOR
X400 377 378 NOT
X401 res_mod.24 376 379 NAND
X402 378 379 res.24 NAND
X403 47 374 380 NAND
X404 380 381 NOT
X405 output_inv 380 382 NAND
X406 res_mod.25 382 383 NOR
X407 383 384 NOT
X408 res_mod.25 382 385 NAND
X409 384 385 res.25 NAND
X410 res_mod.25 380 386 NOR
X411 48 381 387 NAND
X412 output_inv 387 388 NAND
X413 res_mod.26 388 389 NOR
X414 389 390 NOT
X415 res_mod.26 388 391 NAND
X416 390 391 res.26 NAND
X417 49 386 392 NAND
X418 output_inv 392 393 NAND
X419 393 394 NOT
X420 res_mod.27 393 395 NAND
X421 res_mod.27 393 396 NOR
X422 396 397 NOT
X423 395 397 res.27 NAND
X424 output_inv res_mod.27 398 NAND
X425 398 399 NOT
X426 394 399 400 NOR
X427 393 398 401 NAND
X428 50 401 402 NAND
X429 res_mod.28 400 403 NAND
X430 402 403 res.28 NAND
X431 output_inv res_mod.28 404 NAND
X432 404 405 NOT
X433 401 405 406 NOR
X434 400 404 407 NAND
X435 51 407 408 NAND
X436 res_mod.29 406 409 NAND
X437 408 409 res.29 NAND
X438 output_inv res_mod.29 410 NAND
X439 406 410 411 NAND
X440 411 412 NOT
X441 res_mod.30 411 413 NAND
X442 413 414 NOT
X443 res_mod.30 411 415 NOR
X444 414 415 res.30 NOR
X445 output_inv res_mod.30 416 NAND
X446 416 417 NOT
X447 411 417 418 NOR
X448 412 416 419 NAND
X449 res_mod.31 419 420 NOR
X450 52 418 421 NOR
X451 420 421 res.31 NOR
X452 1 b.15 422 NOR
X453 a.15 12 423 NOR
X454 422 423 424 NOR
X455 output_inv strt 425 NOR
X456 rst 425 426 NOR
X457 strt 424 427 NAND
X458 426 427 428 NAND
X459 428 429 NOT
X460 a.0 430 BUF
X461 b.0 431 BUF
X462 res_mod.0 res.0 BUF
X463 clk 429 output_inv DFF
X464 clk rst strt 430 58 62 69 76 83 90 97 104 111 118 124 131 137 144 146 431 152 156 163 170 177 184 191 198 205 211 218 224 231 237 239 res_mod.0 res_mod.1 res_mod.2 res_mod.3 res_mod.4 res_mod.5 res_mod.6 res_mod.7 res_mod.8 res_mod.9 res_mod.10 res_mod.11 res_mod.12 res_mod.13 res_mod.14 res_mod.15 res_mod.16 res_mod.17 res_mod.18 res_mod.19 res_mod.20 res_mod.21 res_mod.22 res_mod.23 res_mod.24 res_mod.25 res_mod.26 res_mod.27 res_mod.28 res_mod.29 res_mod.30 res_mod.31 done UMull
.ENDS ShaddMul

.SUBCKT UKarat clk rst strt a.0 a.1 a.2 a.3 a.4 a.5 a.6 a.7 a.8 a.9 a.10 a.11 a.12 a.13 a.14 a.15 b.0 b.1 b.2 b.3 b.4 b.5 b.6 b.7 b.8 b.9 b.10 b.11 b.12 b.13 b.14 b.15 res.0 res.1 res.2 res.3 res.4 res.5 res.6 res.7 res.8 res.9 res.10 res.11 res.12 res.13 res.14 res.15 res.16 res.17 res.18 res.19 res.20 res.21 res.22 res.23 res.24 res.25 res.26 res.27 res.28 res.29 res.30 res.31 done
X0 a.8 1 NOT
X1 a.15 2 NOT
X2 b.8 3 NOT
X3 b.15 4 NOT
X4 rlow.0 5 NOT
X5 rlow.1 6 NOT
X6 rlow.2 7 NOT
X7 rlow.3 8 NOT
X8 rlow.4 9 NOT
X9 rlow.5 10 NOT
X10 rlow.6 11 NOT
X11 rlow.7 12 NOT
X12 rlow.8 13 NOT
X13 rlow.9 14 NOT
X14 rlow.10 15 NOT
X15 rlow.11 16 NOT
X16 rlow.12 17 NOT
X17 rlow.13 18 NOT
X18 rlow.14 19 NOT
X19 rlow.15 20 NOT
X20 rhigh.0 21 NOT
X21 rhigh.1 22 NOT
X22 rhigh.2 23 NOT
X23 rhigh.3 24 NOT
X24 rhigh.4 25 NOT
X25 rhigh.5 26 NOT
X26 rhigh.6 27 NOT
X27 rhigh.7 28 NOT
X28 rhigh.8 29 NOT
X29 rhigh.9 30 NOT
X30 rhigh.10 31 NOT
X31 rhigh.11 32 NOT
X32 rhigh.12 33 NOT
X33 rhigh.13 34 NOT
X34 rhigh.14 35 NOT
X35 rhigh.15 36 NOT
X36 a.0 37 NOT
X37 a.7 38 NOT
X38 b.0 39 NOT
X39 b.7 40 NOT
X40 rsum.0 41 NOT
X41 rsum.1 42 NOT
X42 rsum.2 43 NOT
X43 rsum.3 44 NOT
X44 rsum.4 45 NOT
X45 rsum.5 46 NOT
X46 rsum.6 47 NOT
X47 rsum.7 48 NOT
X48 rsum.8 49 NOT
X49 rsum.9 50 NOT
X50 rsum.10 51 NOT
X51 rsum.11 52 NOT
X52 rsum.12 53 NOT
X53 rsum.13 54 NOT
X54 rsum.14 55 NOT
X55 rsum.15 56 NOT
X56 rsum.16 57 NOT
X57 rsum.17 58 NOT
X58 dsum dhigh 59 NAND
X59 59 60 NOT
X60 dlow 60 61 NAND
X61 61 done NOT
X62 rlow.0 done 62 NAND
X63 res.0 61 63 NAND
X64 62 63 res.0 NAND
X65 rlow.1 done 64 NAND
X66 res.1 61 65 NAND
X67 64 65 res.1 NAND
X68 rlow.2 done 66 NAND
X69 res.2 61 67 NAND
X70 66 67 res.2 NAND
X71 rlow.3 done 68 NAND
X72 res.3 61 69 NAND
X73 68 69 res.3 NAND
X74 rlow.4 done 70 NAND
X75 res.4 61 71 NAND
X76 70 71 res.4 NAND
X77 rlow.5 done 72 NAND
X78 res.5 61 73 NAND
X79 72 73 res.5 NAND
X80 rlow.6 done 74 NAND
X81 res.6 61 75 NAND
X82 74 75 res.6 NAND
X83 rlow.7 done 76 NAND
X84 res.7 61 77 NAND
X85 76 77 res.7 NAND
X86 5 rsum.0 78 NAND
X87 5 rsum.0 79 NOR
X88 rlow.0 41 80 NAND
X89 78 80 81 NAND
X90 81 82 NOT
X91 21 81 83 NAND
X92 21 81 84 NOR
X93 rhigh.0 82 85 NAND
X94 83 85 86 NAND
X95 86 87 NOT
X96 rlow.8 86 88 NOR
X97 13 87 89 NOR
X98 89 90 NOT
X99 88 89 91 NOR
X100 61 91 92 NOR
X101 res.8 done 93 NOR
X102 92 93 res.8 NOR
X103 res.9 61 94 NAND
X104 rlow.1 42 95 NOR
X105 6 rsum.1 96 NAND
X106 6 rsum.1 97 NOR
X107 rlow.1 42 98 NAND
X108 95 97 99 NOR
X109 96 98 100 NAND
X110 79 100 101 NOR
X111 80 99 102 NAND
X112 80 99 103 NOR
X113 79 100 104 NAND
X114 101 103 105 NOR
X115 102 104 106 NAND
X116 rhigh.1 106 107 NOR
X117 22 105 108 NAND
X118 22 105 109 NOR
X119 rhigh.1 106 110 NAND
X120 107 109 111 NOR
X121 108 110 112 NAND
X122 84 112 113 NOR
X123 85 111 114 NAND
X124 85 111 115 NOR
X125 84 112 116 NAND
X126 113 115 117 NOR
X127 114 116 118 NAND
X128 14 118 119 NOR
X129 rlow.9 117 120 NAND
X130 rlow.9 117 121 NOR
X131 119 121 122 NOR
X132 122 123 NOT
X133 90 123 124 NOR
X134 124 125 NOT
X135 89 122 126 NOR
X136 124 126 127 NOR
X137 done 127 128 NAND
X138 94 128 res.9 NAND
X139 res.10 61 129 NAND
X140 120 125 130 NAND
X141 130 131 NOT
X142 107 113 132 NOR
X143 108 114 133 NAND